[General]
sim-time-limit = 600s
network=epidemicbroadcast.simulations.Floorplan
**.nodeX[1].firstInfected=true

