[General]
sim-time-limit = 45s
network=epidemicbroadcast.simulations.Floorplan
**.nodeX[0].firstInfected=true
#**.nodeX[5..9].pos_x = uniform(400, 500)
#**.nodeX[5..9].pos_y = uniform(400, 500)
#**.numberOfNodes = 100
**.numberOfNodes = ${100, 200, 500, 700}
**.radius = 100
repeat = 8
seed-set = ${repetition}

