[General]
sim-time-limit = 45s
network=epidemicbroadcast.simulations.Floorplan
**.nodeX[0].firstInfected=true
#**.nodeX[5..9].pos_x = uniform(400, 500)
#**.nodeX[5..9].pos_y = uniform(400, 500)
**.numberOfNodes = 100
**.radius = 100
repeat = 4
seed-set = ${repetition}

